data_urea
_symmetry_cell_setting                   tetragonal
_symmetry_space_group_name_H-M           'P -4 21 m'
_symmetry_space_group_name_Hall          'P -4 2ab'
_symmetry_Int_Tables_number              113

loop_
 _space_group_symop_id
 _space_group_symop_operation_xyz
 1   x,y,z
 2   -x,-y,z
 3   y,-x,-z
 4   -y,x,-z
 5   -x+1/2,y+1/2,-z
 6   x+1/2,-y+1/2,-z
 7   -y+1/2,-x+1/2,z
 8   y+1/2,x+1/2,z

_cell_length_a                           5.6308(4)
_cell_length_b                           5.6308(4)
_cell_length_c                           4.7145(10)
_cell_angle_alpha                        90
_cell_angle_beta                         90
_cell_angle_gamma                        90
_cell_volume                             149.48(3)

loop_
 _atom_site_label
 _atom_site_type_symbol
 _atom_site_fract_x
 _atom_site_fract_y
 _atom_site_fract_z
 _atom_site_thermal_displace_type
 _atom_site_U_iso_or_equiv
 _atom_site_site_symmetry_multiplicity
 _atom_site_occupancy
 _atom_site_calc_flag
 _atom_site_refinement_flags
 _atom_site_disorder_assembly
 _atom_site_disorder_group
  N1 N 0.3550(2) 0.8550(2) 0.3214(3) Uiso 0.0215(3) 4 1 d . . .
  O1 O 0.5 1 -0.0951(3) Uiso 0.0143(3) 2 1 d . . .
  C1 C 0.5 1 0.1704(4) Uiso 0.0120(4) 2 1 d . . .
  H2 H 0.3538(17) 0.8538(17) 0.5446(17) Uiso 0.042(2) 4 1 d . . .
  H1 H 0.2349(16) 0.7349(16) 0.215(2) Uiso 0.040(3) 4 1 d . . .


loop_
 _atom_site_aniso_label
 _atom_site_aniso_type_symbol
 _atom_site_aniso_U_11
 _atom_site_aniso_U_22
 _atom_site_aniso_U_33
 _atom_site_aniso_U_12
 _atom_site_aniso_U_13
 _atom_site_aniso_U_23
 N1 N 0.0275(6) 0.0275(6) 0.0096(5) -0.0129(8) 0.0002(4) 0.0002(4)
 O1 O 0.0178(6) 0.0178(6) 0.0073(6) -0.0015(9) 0 0
 C1 C 0.0154(7) 0.0154(7) 0.0054(7) -0.0025(10) 0 0
 H2 H 0.059(5) 0.059(5) 0.009(3) -0.001(8) -0.004(3) -0.004(3)
 H1 H 0.049(5) 0.049(5) 0.022(5) -0.005(6) -0.017(3) -0.017(3)
#ENDs